sim-outorder: SimpleScalar/Alpha Tool Set version 3.0 of August, 2003.
Copyright (c) 1994-2003 by Todd M. Austin, Ph.D. and SimpleScalar, LLC.
All Rights Reserved. This version of SimpleScalar is licensed for academic
non-commercial use.  No portion of this work may be used by any commercial
entity, or for any commercial purpose, without the prior written permission
of SimpleScalar, LLC (info@simplescalar.com).

sim: loading EIO file: /home/vijay/simplescalar/cint2000eio/gzip.eio
sim: command line: /home/vijay/simplescalar/simplesim-3.0/sim-outorder -vc true -sb true -cache:il1 il1:32:32:2:l -cache:il1lat 1 -cache:dl1 dl1:32:32:2:l -cache:dl1lat 1 -cache:il2 dl2 -cache:dl2 dl2:1024:128:4:l -cache:dl2lat 20 -mem:lat 100 5 -redir:sim /home/vijay/vicResults/64/gzip2d.out -redir:prog /home/vijay/vicResults/64/gzip2d.prog -max:inst 50000000 /home/vijay/simplescalar/cint2000eio/gzip.eio 

sim: simulation started @ Mon Nov 29 16:23:43 2010, options follow:

sim-outorder: This simulator implements a very detailed out-of-order issue
superscalar processor with a two-level memory system and speculative
execution support.  This simulator is a performance simulator, tracking the
latency of all pipeline operations.

# -config                     # load configuration from a file
# -dumpconfig                 # dump configuration to a file
# -h                    false # print help message    
# -v                    false # verbose operation     
# -d                    false # enable debug message  
# -i                    false # start in Dlite debugger
-seed                       1 # random number generator seed (0 for timer seed)
# -q                    false # initialize and terminate immediately
# -chkpt               <null> # restore EIO trace execution from <fname>
# -redir:sim     /home/vijay/vicResults/64/gzip2d.out # redirect simulator output to file (non-interactive only)
# -redir:prog    /home/vijay/vicResults/64/gzip2d.prog # redirect simulated program output to file
-nice                       0 # simulator scheduling priority
-max:inst            50000000 # maximum number of inst's to execute
-fastfwd                    0 # number of insts skipped before timing starts
# -ptrace              <null> # generate pipetrace, i.e., <fname|stdout|stderr> <range>
-fetch:ifqsize              4 # instruction fetch queue size (in insts)
-fetch:mplat                3 # extra branch mis-prediction latency
-fetch:speed                1 # speed of front-end of machine relative to execution core
-bpred                  bimod # branch predictor type {nottaken|taken|perfect|bimod|2lev|comb}
-bpred:bimod     2048 # bimodal predictor config (<table size>)
-bpred:2lev      1 1024 8 0 # 2-level predictor config (<l1size> <l2size> <hist_size> <xor>)
-bpred:comb      1024 # combining predictor config (<meta_table_size>)
-bpred:ras                  8 # return address stack size (0 for no return stack)
-bpred:btb       512 4 # BTB config (<num_sets> <associativity>)
# -bpred:spec_update       <null> # speculative predictors update in {ID|WB} (default non-spec)
-decode:width               4 # instruction decode B/W (insts/cycle)
-issue:width                4 # instruction issue B/W (insts/cycle)
-issue:inorder          false # run pipeline with in-order issue
-issue:wrongpath         true # issue instructions down wrong execution paths
-commit:width               4 # instruction commit B/W (insts/cycle)
-ruu:size                  16 # register update unit (RUU) size
-lsq:size                   8 # load/store queue (LSQ) size
-cache:dl1       dl1:32:32:2:l # l1 data cache config, i.e., {<config>|none}
-cache:dl1lat               1 # l1 data cache hit latency (in cycles)
-cache:dl2       dl2:1024:128:4:l # l2 data cache config, i.e., {<config>|none}
-cache:dl2lat              20 # l2 data cache hit latency (in cycles)
-cache:il1       il1:32:32:2:l # l1 inst cache config, i.e., {<config>|dl1|dl2|none}
-cache:il1lat               1 # l1 instruction cache hit latency (in cycles)
-cache:il2                dl2 # l2 instruction cache config, i.e., {<config>|dl2|none}
-cache:il2lat               6 # l2 instruction cache hit latency (in cycles)
-cache:flush            false # flush caches on system calls
-cache:icompress        false # convert 64-bit inst addresses to 32-bit inst equivalents
-vc                      true # Use a victim cache    
-sb                      true # Use a stream buffer   
-mem:lat         100 5 # memory access latency (<first_chunk> <inter_chunk>)
-mem:width                  8 # memory access bus width (in bytes)
-tlb:itlb        itlb:16:4096:4:l # instruction TLB config, i.e., {<config>|none}
-tlb:dtlb        dtlb:32:4096:4:l # data TLB config, i.e., {<config>|none}
-tlb:lat                   30 # inst/data TLB miss latency (in cycles)
-res:ialu                   4 # total number of integer ALU's available
-res:imult                  1 # total number of integer multiplier/dividers available
-res:memport                2 # total number of memory system ports available (to CPU)
-res:fpalu                  4 # total number of floating point ALU's available
-res:fpmult                 1 # total number of floating point multiplier/dividers available
# -pcstat              <null> # profile stat(s) against text addr's (mult uses ok)
-bugcompat              false # operate in backward-compatible bugs mode (for testing only)

  Pipetrace range arguments are formatted as follows:

    {{@|#}<start>}:{{@|#|+}<end>}

  Both ends of the range are optional, if neither are specified, the entire
  execution is traced.  Ranges that start with a `@' designate an address
  range to be traced, those that start with an `#' designate a cycle count
  range.  All other range values represent an instruction count range.  The
  second argument, if specified with a `+', indicates a value relative
  to the first argument, e.g., 1000:+100 == 1000:1100.  Program symbols may
  be used in all contexts.

    Examples:   -ptrace FOO.trc #0:#1000
                -ptrace BAR.trc @2000:
                -ptrace BLAH.trc :1500
                -ptrace UXXE.trc :
                -ptrace FOOBAR.trc @main:+278

  Branch predictor configuration examples for 2-level predictor:
    Configurations:   N, M, W, X
      N   # entries in first level (# of shift register(s))
      W   width of shift register(s)
      M   # entries in 2nd level (# of counters, or other FSM)
      X   (yes-1/no-0) xor history and address for 2nd level index
    Sample predictors:
      GAg     : 1, W, 2^W, 0
      GAp     : 1, W, M (M > 2^W), 0
      PAg     : N, W, 2^W, 0
      PAp     : N, W, M (M == 2^(N+W)), 0
      gshare  : 1, W, 2^W, 1
  Predictor `comb' combines a bimodal and a 2-level predictor.

  The cache config parameter <config> has the following format:

    <name>:<nsets>:<bsize>:<assoc>:<repl>

    <name>   - name of the cache being defined
    <nsets>  - number of sets in the cache
    <bsize>  - block size of the cache
    <assoc>  - associativity of the cache
    <repl>   - block replacement strategy, 'l'-LRU, 'f'-FIFO, 'r'-random

    Examples:   -cache:dl1 dl1:4096:32:1:l
                -dtlb dtlb:128:4096:32:r

  Cache levels can be unified by pointing a level of the instruction cache
  hierarchy at the data cache hiearchy using the "dl1" and "dl2" cache
  configuration arguments.  Most sensible combinations are supported, e.g.,

    A unified l2 cache (il2 is pointed at dl2):
      -cache:il1 il1:128:64:1:l -cache:il2 dl2
      -cache:dl1 dl1:256:32:1:l -cache:dl2 ul2:1024:64:2:l

    Or, a fully unified cache hierarchy (il1 pointed at dl1):
      -cache:il1 dl1
      -cache:dl1 ul1:256:32:1:l -cache:dl2 ul2:1024:64:2:l



sim: ** starting performance simulation **

sim: ** simulation statistics **
sim_num_insn               50000000 # total number of instructions committed
sim_num_refs               15912902 # total number of loads and stores committed
sim_num_loads              11864686 # total number of loads committed
sim_num_stores         4048216.0000 # total number of stores committed
sim_num_branches            4964230 # total number of branches committed
sim_elapsed_time                 56 # total simulation time in seconds
sim_inst_rate           892857.1429 # simulation speed (in insts/sec)
sim_total_insn             54477104 # total number of instructions executed
sim_total_refs             17536449 # total number of loads and stores executed
sim_total_loads            13211033 # total number of loads executed
sim_total_stores       4325416.0000 # total number of stores executed
sim_total_branches          5417151 # total number of branches executed
sim_cycle                  39184165 # total simulation time in cycles
sim_IPC                      1.2760 # instructions per cycle
sim_CPI                      0.7837 # cycles per instruction
sim_exec_BW                  1.3903 # total instructions (mis-spec + committed) per cycle
sim_IPB                     10.0721 # instruction per branch
IFQ_count                 117783055 # cumulative IFQ occupancy
IFQ_fcount                 27610785 # cumulative IFQ full count
ifq_occupancy                3.0059 # avg IFQ occupancy (insn's)
ifq_rate                     1.3903 # avg IFQ dispatch rate (insn/cycle)
ifq_latency                  2.1621 # avg IFQ occupant latency (cycle's)
ifq_full                     0.7046 # fraction of time (cycle's) IFQ was full
RUU_count                 477654142 # cumulative RUU occupancy
RUU_fcount                 22186580 # cumulative RUU full count
ruu_occupancy               12.1900 # avg RUU occupancy (insn's)
ruu_rate                     1.3903 # avg RUU dispatch rate (insn/cycle)
ruu_latency                  8.7680 # avg RUU occupant latency (cycle's)
ruu_full                     0.5662 # fraction of time (cycle's) RUU was full
LSQ_count                 155175414 # cumulative LSQ occupancy
LSQ_fcount                  2729136 # cumulative LSQ full count
lsq_occupancy                3.9602 # avg LSQ occupancy (insn's)
lsq_rate                     1.3903 # avg LSQ dispatch rate (insn/cycle)
lsq_latency                  2.8485 # avg LSQ occupant latency (cycle's)
lsq_full                     0.0696 # fraction of time (cycle's) LSQ was full
sim_slip                  644352266 # total number of slip cycles
avg_sim_slip                12.8870 # the average slip between issue and retirement
bpred_bimod.lookups         5616857 # total number of bpred lookups
bpred_bimod.updates         4964229 # total number of updates
bpred_bimod.addr_hits       4509253 # total number of address-predicted hits
bpred_bimod.dir_hits        4544995 # total number of direction-predicted hits (includes addr-hits)
bpred_bimod.misses           419234 # total number of misses
bpred_bimod.jr_hits          419397 # total number of address-predicted hits for JR's
bpred_bimod.jr_seen          455047 # total number of JR's seen
bpred_bimod.jr_non_ras_hits.PP            7 # total number of address-predicted hits for non-RAS JR's
bpred_bimod.jr_non_ras_seen.PP            8 # total number of non-RAS JR's seen
bpred_bimod.bpred_addr_rate    0.9083 # branch address-prediction rate (i.e., addr-hits/updates)
bpred_bimod.bpred_dir_rate    0.9155 # branch direction-prediction rate (i.e., all-hits/updates)
bpred_bimod.bpred_jr_rate    0.9217 # JR address-prediction rate (i.e., JR addr-hits/JRs seen)
bpred_bimod.bpred_jr_non_ras_rate.PP    0.8750 # non-RAS JR addr-pred rate (ie, non-RAS JR hits/JRs seen)
bpred_bimod.retstack_pushes       584103 # total number of address pushed onto ret-addr stack
bpred_bimod.retstack_pops       560996 # total number of address popped off of ret-addr stack
bpred_bimod.used_ras.PP       455039 # total number of RAS predictions used
bpred_bimod.ras_hits.PP       419390 # total number of RAS hits
bpred_bimod.ras_rate.PP    0.9217 # RAS prediction rate (i.e., RAS hits/used RAS)
il1.accesses               56486672 # total number of accesses
il1.hits                   56127693 # total number of hits
il1.vc_misses                     0 # total number of victim cache misses
il1.vc_hits                       0 # total number of victim cache hits
il1.misses                   358979 # total number of misses
il1.replacements             561955 # total number of replacements
il1.writebacks                    0 # total number of writebacks
il1.invalidations                 0 # total number of invalidations
il1.miss_rate                0.0064 # miss rate (i.e., misses/ref)
il1.repl_rate                0.0099 # replacement rate (i.e., repls/ref)
il1.wb_rate                  0.0000 # writeback rate (i.e., wrbks/ref)
il1.inv_rate                 0.0000 # invalidation rate (i.e., invs/ref)
dl1.accesses               16636556 # total number of accesses
dl1.hits                   15922707 # total number of hits
dl1.vc_misses               1139864 # total number of victim cache misses
dl1.vc_hits                  333410 # total number of victim cache hits
dl1.misses                   713849 # total number of misses
dl1.replacements            1047195 # total number of replacements
dl1.writebacks               426079 # total number of writebacks
dl1.invalidations                 0 # total number of invalidations
dl1.miss_rate                0.0429 # miss rate (i.e., misses/ref)
dl1.repl_rate                0.0629 # replacement rate (i.e., repls/ref)
dl1.wb_rate                  0.0256 # writeback rate (i.e., wrbks/ref)
dl1.inv_rate                 0.0000 # invalidation rate (i.e., invs/ref)
dl2.accesses                1498907 # total number of accesses
dl2.hits                    1493228 # total number of hits
dl2.vc_misses                     0 # total number of victim cache misses
dl2.vc_hits                       0 # total number of victim cache hits
dl2.misses                     5679 # total number of misses
dl2.replacements               1583 # total number of replacements
dl2.writebacks                  662 # total number of writebacks
dl2.invalidations                 0 # total number of invalidations
dl2.miss_rate                0.0038 # miss rate (i.e., misses/ref)
dl2.repl_rate                0.0011 # replacement rate (i.e., repls/ref)
dl2.wb_rate                  0.0004 # writeback rate (i.e., wrbks/ref)
dl2.inv_rate                 0.0000 # invalidation rate (i.e., invs/ref)
itlb.accesses              56486672 # total number of accesses
itlb.hits                  56486664 # total number of hits
itlb.vc_misses                    0 # total number of victim cache misses
itlb.vc_hits                      0 # total number of victim cache hits
itlb.misses                       8 # total number of misses
itlb.replacements                 0 # total number of replacements
itlb.writebacks                   0 # total number of writebacks
itlb.invalidations                0 # total number of invalidations
itlb.miss_rate               0.0000 # miss rate (i.e., misses/ref)
itlb.repl_rate               0.0000 # replacement rate (i.e., repls/ref)
itlb.wb_rate                 0.0000 # writeback rate (i.e., wrbks/ref)
itlb.inv_rate                0.0000 # invalidation rate (i.e., invs/ref)
dtlb.accesses              16637355 # total number of accesses
dtlb.hits                  16637174 # total number of hits
dtlb.vc_misses                    0 # total number of victim cache misses
dtlb.vc_hits                      0 # total number of victim cache hits
dtlb.misses                     181 # total number of misses
dtlb.replacements                53 # total number of replacements
dtlb.writebacks                   0 # total number of writebacks
dtlb.invalidations                0 # total number of invalidations
dtlb.miss_rate               0.0000 # miss rate (i.e., misses/ref)
dtlb.repl_rate               0.0000 # replacement rate (i.e., repls/ref)
dtlb.wb_rate                 0.0000 # writeback rate (i.e., wrbks/ref)
dtlb.inv_rate                0.0000 # invalidation rate (i.e., invs/ref)
vc.accesses                 1473274 # total number of accesses
vc.hits                      426079 # total number of hits
vc.vc_misses                      0 # total number of victim cache misses
vc.vc_hits                        0 # total number of victim cache hits
vc.misses                   1047195 # total number of misses
vc.replacements              713721 # total number of replacements
vc.writebacks                     0 # total number of writebacks
vc.invalidations             333410 # total number of invalidations
vc.miss_rate                 0.7108 # miss rate (i.e., misses/ref)
vc.repl_rate                 0.4844 # replacement rate (i.e., repls/ref)
vc.wb_rate                   0.0000 # writeback rate (i.e., wrbks/ref)
vc.inv_rate                  0.2263 # invalidation rate (i.e., invs/ref)
sb.accesses                 2749466 # total number of accesses
sb.hits                      751531 # total number of hits
sb.vc_misses                      0 # total number of victim cache misses
sb.vc_hits                        0 # total number of victim cache hits
sb.misses                   1997935 # total number of misses
sb.replacements                   0 # total number of replacements
sb.writebacks                     0 # total number of writebacks
sb.invalidations            1638952 # total number of invalidations
sb.miss_rate                 0.7267 # miss rate (i.e., misses/ref)
sb.repl_rate                 0.0000 # replacement rate (i.e., repls/ref)
sb.wb_rate                   0.0000 # writeback rate (i.e., wrbks/ref)
sb.inv_rate                  0.5961 # invalidation rate (i.e., invs/ref)
sim_invalid_addrs                 0 # total non-speculative bogus addresses seen (debug var)
ld_text_base           0x0120000000 # program text (code) segment base
ld_text_size                 212992 # program text (code) size in bytes
ld_data_base           0x0140000000 # program initialized data segment base
ld_data_size                 402416 # program init'ed `.data' and uninit'ed `.bss' size in bytes
ld_stack_base          0x011ff9b000 # program stack segment base (highest address in stack)
ld_stack_size                 16384 # program initial stack size
ld_prog_entry          0x01200119a4 # program entry point (initial PC)
ld_environ_base        0x011ff96eb0 # program environment base address address
ld_target_big_endian              0 # target executable endian-ness, non-zero if big endian
mem.page_count                  466 # total number of pages allocated
mem.page_mem                  3728k # total size of memory pages allocated
mem.ptab_misses             1052906 # total first level page table misses
mem.ptab_accesses         280432302 # total page table accesses
mem.ptab_miss_rate           0.0038 # first level page table miss rate

