sim-outorder: SimpleScalar/Alpha Tool Set version 3.0 of August, 2003.
Copyright (c) 1994-2003 by Todd M. Austin, Ph.D. and SimpleScalar, LLC.
All Rights Reserved. This version of SimpleScalar is licensed for academic
non-commercial use.  No portion of this work may be used by any commercial
entity, or for any commercial purpose, without the prior written permission
of SimpleScalar, LLC (info@simplescalar.com).

sim: loading EIO file: /home/vijay/simplescalar/cfp2000eio/equake.eio
sim: command line: /home/vijay/simplescalar/simplesim-3.0/sim-outorder -vc true -sb true -cache:il1 il1:8:32:8:l -cache:il1lat 1 -cache:dl1 dl1:8:32:8:l -cache:dl1lat 1 -cache:il2 dl2 -cache:dl2 dl2:1024:128:4:l -cache:dl2lat 20 -mem:lat 100 5 -redir:sim /home/vijay/vicResults/64/equake8d.out -redir:prog /home/vijay/vicResults/64/equake8d.prog -max:inst 50000000 /home/vijay/simplescalar/cfp2000eio/equake.eio 

sim: simulation started @ Mon Nov 29 01:49:38 2010, options follow:

sim-outorder: This simulator implements a very detailed out-of-order issue
superscalar processor with a two-level memory system and speculative
execution support.  This simulator is a performance simulator, tracking the
latency of all pipeline operations.

# -config                     # load configuration from a file
# -dumpconfig                 # dump configuration to a file
# -h                    false # print help message    
# -v                    false # verbose operation     
# -d                    false # enable debug message  
# -i                    false # start in Dlite debugger
-seed                       1 # random number generator seed (0 for timer seed)
# -q                    false # initialize and terminate immediately
# -chkpt               <null> # restore EIO trace execution from <fname>
# -redir:sim     /home/vijay/vicResults/64/equake8d.out # redirect simulator output to file (non-interactive only)
# -redir:prog    /home/vijay/vicResults/64/equake8d.prog # redirect simulated program output to file
-nice                       0 # simulator scheduling priority
-max:inst            50000000 # maximum number of inst's to execute
-fastfwd                    0 # number of insts skipped before timing starts
# -ptrace              <null> # generate pipetrace, i.e., <fname|stdout|stderr> <range>
-fetch:ifqsize              4 # instruction fetch queue size (in insts)
-fetch:mplat                3 # extra branch mis-prediction latency
-fetch:speed                1 # speed of front-end of machine relative to execution core
-bpred                  bimod # branch predictor type {nottaken|taken|perfect|bimod|2lev|comb}
-bpred:bimod     2048 # bimodal predictor config (<table size>)
-bpred:2lev      1 1024 8 0 # 2-level predictor config (<l1size> <l2size> <hist_size> <xor>)
-bpred:comb      1024 # combining predictor config (<meta_table_size>)
-bpred:ras                  8 # return address stack size (0 for no return stack)
-bpred:btb       512 4 # BTB config (<num_sets> <associativity>)
# -bpred:spec_update       <null> # speculative predictors update in {ID|WB} (default non-spec)
-decode:width               4 # instruction decode B/W (insts/cycle)
-issue:width                4 # instruction issue B/W (insts/cycle)
-issue:inorder          false # run pipeline with in-order issue
-issue:wrongpath         true # issue instructions down wrong execution paths
-commit:width               4 # instruction commit B/W (insts/cycle)
-ruu:size                  16 # register update unit (RUU) size
-lsq:size                   8 # load/store queue (LSQ) size
-cache:dl1       dl1:8:32:8:l # l1 data cache config, i.e., {<config>|none}
-cache:dl1lat               1 # l1 data cache hit latency (in cycles)
-cache:dl2       dl2:1024:128:4:l # l2 data cache config, i.e., {<config>|none}
-cache:dl2lat              20 # l2 data cache hit latency (in cycles)
-cache:il1       il1:8:32:8:l # l1 inst cache config, i.e., {<config>|dl1|dl2|none}
-cache:il1lat               1 # l1 instruction cache hit latency (in cycles)
-cache:il2                dl2 # l2 instruction cache config, i.e., {<config>|dl2|none}
-cache:il2lat               6 # l2 instruction cache hit latency (in cycles)
-cache:flush            false # flush caches on system calls
-cache:icompress        false # convert 64-bit inst addresses to 32-bit inst equivalents
-vc                      true # Use a victim cache    
-sb                      true # Use a stream buffer   
-mem:lat         100 5 # memory access latency (<first_chunk> <inter_chunk>)
-mem:width                  8 # memory access bus width (in bytes)
-tlb:itlb        itlb:16:4096:4:l # instruction TLB config, i.e., {<config>|none}
-tlb:dtlb        dtlb:32:4096:4:l # data TLB config, i.e., {<config>|none}
-tlb:lat                   30 # inst/data TLB miss latency (in cycles)
-res:ialu                   4 # total number of integer ALU's available
-res:imult                  1 # total number of integer multiplier/dividers available
-res:memport                2 # total number of memory system ports available (to CPU)
-res:fpalu                  4 # total number of floating point ALU's available
-res:fpmult                 1 # total number of floating point multiplier/dividers available
# -pcstat              <null> # profile stat(s) against text addr's (mult uses ok)
-bugcompat              false # operate in backward-compatible bugs mode (for testing only)

  Pipetrace range arguments are formatted as follows:

    {{@|#}<start>}:{{@|#|+}<end>}

  Both ends of the range are optional, if neither are specified, the entire
  execution is traced.  Ranges that start with a `@' designate an address
  range to be traced, those that start with an `#' designate a cycle count
  range.  All other range values represent an instruction count range.  The
  second argument, if specified with a `+', indicates a value relative
  to the first argument, e.g., 1000:+100 == 1000:1100.  Program symbols may
  be used in all contexts.

    Examples:   -ptrace FOO.trc #0:#1000
                -ptrace BAR.trc @2000:
                -ptrace BLAH.trc :1500
                -ptrace UXXE.trc :
                -ptrace FOOBAR.trc @main:+278

  Branch predictor configuration examples for 2-level predictor:
    Configurations:   N, M, W, X
      N   # entries in first level (# of shift register(s))
      W   width of shift register(s)
      M   # entries in 2nd level (# of counters, or other FSM)
      X   (yes-1/no-0) xor history and address for 2nd level index
    Sample predictors:
      GAg     : 1, W, 2^W, 0
      GAp     : 1, W, M (M > 2^W), 0
      PAg     : N, W, 2^W, 0
      PAp     : N, W, M (M == 2^(N+W)), 0
      gshare  : 1, W, 2^W, 1
  Predictor `comb' combines a bimodal and a 2-level predictor.

  The cache config parameter <config> has the following format:

    <name>:<nsets>:<bsize>:<assoc>:<repl>

    <name>   - name of the cache being defined
    <nsets>  - number of sets in the cache
    <bsize>  - block size of the cache
    <assoc>  - associativity of the cache
    <repl>   - block replacement strategy, 'l'-LRU, 'f'-FIFO, 'r'-random

    Examples:   -cache:dl1 dl1:4096:32:1:l
                -dtlb dtlb:128:4096:32:r

  Cache levels can be unified by pointing a level of the instruction cache
  hierarchy at the data cache hiearchy using the "dl1" and "dl2" cache
  configuration arguments.  Most sensible combinations are supported, e.g.,

    A unified l2 cache (il2 is pointed at dl2):
      -cache:il1 il1:128:64:1:l -cache:il2 dl2
      -cache:dl1 dl1:256:32:1:l -cache:dl2 ul2:1024:64:2:l

    Or, a fully unified cache hierarchy (il1 pointed at dl1):
      -cache:il1 dl1
      -cache:dl1 ul1:256:32:1:l -cache:dl2 ul2:1024:64:2:l



sim: ** starting performance simulation **

sim: ** simulation statistics **
sim_num_insn               50000001 # total number of instructions committed
sim_num_refs               17944857 # total number of loads and stores committed
sim_num_loads              13516924 # total number of loads committed
sim_num_stores         4427933.0000 # total number of stores committed
sim_num_branches            8570301 # total number of branches committed
sim_elapsed_time                 37 # total simulation time in seconds
sim_inst_rate          1351351.3784 # simulation speed (in insts/sec)
sim_total_insn             51797279 # total number of instructions executed
sim_total_refs             18450109 # total number of loads and stores executed
sim_total_loads            13930312 # total number of loads executed
sim_total_stores       4519797.0000 # total number of stores executed
sim_total_branches          8924416 # total number of branches executed
sim_cycle                  48035260 # total simulation time in cycles
sim_IPC                      1.0409 # instructions per cycle
sim_CPI                      0.9607 # cycles per instruction
sim_exec_BW                  1.0783 # total instructions (mis-spec + committed) per cycle
sim_IPB                      5.8341 # instruction per branch
IFQ_count                  66185150 # cumulative IFQ occupancy
IFQ_fcount                 14000807 # cumulative IFQ full count
ifq_occupancy                1.3778 # avg IFQ occupancy (insn's)
ifq_rate                     1.0783 # avg IFQ dispatch rate (insn/cycle)
ifq_latency                  1.2778 # avg IFQ occupant latency (cycle's)
ifq_full                     0.2915 # fraction of time (cycle's) IFQ was full
RUU_count                 277019900 # cumulative RUU occupancy
RUU_fcount                  6754739 # cumulative RUU full count
ruu_occupancy                5.7670 # avg RUU occupancy (insn's)
ruu_rate                     1.0783 # avg RUU dispatch rate (insn/cycle)
ruu_latency                  5.3482 # avg RUU occupant latency (cycle's)
ruu_full                     0.1406 # fraction of time (cycle's) RUU was full
LSQ_count                 101757005 # cumulative LSQ occupancy
LSQ_fcount                  2249470 # cumulative LSQ full count
lsq_occupancy                2.1184 # avg LSQ occupancy (insn's)
lsq_rate                     1.0783 # avg LSQ dispatch rate (insn/cycle)
lsq_latency                  1.9645 # avg LSQ occupant latency (cycle's)
lsq_full                     0.0468 # fraction of time (cycle's) LSQ was full
sim_slip                  438323954 # total number of slip cycles
avg_sim_slip                 8.7665 # the average slip between issue and retirement
bpred_bimod.lookups         9048222 # total number of bpred lookups
bpred_bimod.updates         8570299 # total number of updates
bpred_bimod.addr_hits       8367422 # total number of address-predicted hits
bpred_bimod.dir_hits        8367506 # total number of direction-predicted hits (includes addr-hits)
bpred_bimod.misses           202793 # total number of misses
bpred_bimod.jr_hits         1508547 # total number of address-predicted hits for JR's
bpred_bimod.jr_seen         1508562 # total number of JR's seen
bpred_bimod.jr_non_ras_hits.PP       160715 # total number of address-predicted hits for non-RAS JR's
bpred_bimod.jr_non_ras_seen.PP       160720 # total number of non-RAS JR's seen
bpred_bimod.bpred_addr_rate    0.9763 # branch address-prediction rate (i.e., addr-hits/updates)
bpred_bimod.bpred_dir_rate    0.9763 # branch direction-prediction rate (i.e., all-hits/updates)
bpred_bimod.bpred_jr_rate    1.0000 # JR address-prediction rate (i.e., JR addr-hits/JRs seen)
bpred_bimod.bpred_jr_non_ras_rate.PP    1.0000 # non-RAS JR addr-pred rate (ie, non-RAS JR hits/JRs seen)
bpred_bimod.retstack_pushes      1393769 # total number of address pushed onto ret-addr stack
bpred_bimod.retstack_pops      1379802 # total number of address popped off of ret-addr stack
bpred_bimod.used_ras.PP      1347842 # total number of RAS predictions used
bpred_bimod.ras_hits.PP      1347832 # total number of RAS hits
bpred_bimod.ras_rate.PP    1.0000 # RAS prediction rate (i.e., RAS hits/used RAS)
il1.accesses               53993305 # total number of accesses
il1.hits                   52541097 # total number of hits
il1.vc_misses                     0 # total number of victim cache misses
il1.vc_hits                       0 # total number of victim cache hits
il1.misses                  1452208 # total number of misses
il1.replacements            4762363 # total number of replacements
il1.writebacks                    0 # total number of writebacks
il1.invalidations                 0 # total number of invalidations
il1.miss_rate                0.0269 # miss rate (i.e., misses/ref)
il1.repl_rate                0.0882 # replacement rate (i.e., repls/ref)
il1.wb_rate                  0.0000 # writeback rate (i.e., wrbks/ref)
il1.inv_rate                 0.0000 # invalidation rate (i.e., invs/ref)
dl1.accesses               18013725 # total number of accesses
dl1.hits                   18003341 # total number of hits
dl1.vc_misses                162509 # total number of victim cache misses
dl1.vc_hits                  588517 # total number of victim cache hits
dl1.misses                    10384 # total number of misses
dl1.replacements             598837 # total number of replacements
dl1.writebacks               152189 # total number of writebacks
dl1.invalidations                 0 # total number of invalidations
dl1.miss_rate                0.0006 # miss rate (i.e., misses/ref)
dl1.repl_rate                0.0332 # replacement rate (i.e., repls/ref)
dl1.wb_rate                  0.0084 # writeback rate (i.e., wrbks/ref)
dl1.inv_rate                 0.0000 # invalidation rate (i.e., invs/ref)
dl2.accesses                1614781 # total number of accesses
dl2.hits                    1613032 # total number of hits
dl2.vc_misses                     0 # total number of victim cache misses
dl2.vc_hits                       0 # total number of victim cache hits
dl2.misses                     1749 # total number of misses
dl2.replacements                  0 # total number of replacements
dl2.writebacks                    0 # total number of writebacks
dl2.invalidations                 0 # total number of invalidations
dl2.miss_rate                0.0011 # miss rate (i.e., misses/ref)
dl2.repl_rate                0.0000 # replacement rate (i.e., repls/ref)
dl2.wb_rate                  0.0000 # writeback rate (i.e., wrbks/ref)
dl2.inv_rate                 0.0000 # invalidation rate (i.e., invs/ref)
itlb.accesses              53993305 # total number of accesses
itlb.hits                  53993287 # total number of hits
itlb.vc_misses                    0 # total number of victim cache misses
itlb.vc_hits                      0 # total number of victim cache hits
itlb.misses                      18 # total number of misses
itlb.replacements                 0 # total number of replacements
itlb.writebacks                   0 # total number of writebacks
itlb.invalidations                0 # total number of invalidations
itlb.miss_rate               0.0000 # miss rate (i.e., misses/ref)
itlb.repl_rate               0.0000 # replacement rate (i.e., repls/ref)
itlb.wb_rate                 0.0000 # writeback rate (i.e., wrbks/ref)
itlb.inv_rate                0.0000 # invalidation rate (i.e., invs/ref)
dtlb.accesses              18174472 # total number of accesses
dtlb.hits                  18174405 # total number of hits
dtlb.vc_misses                    0 # total number of victim cache misses
dtlb.vc_hits                      0 # total number of victim cache hits
dtlb.misses                      67 # total number of misses
dtlb.replacements                 1 # total number of replacements
dtlb.writebacks                   0 # total number of writebacks
dtlb.invalidations                0 # total number of invalidations
dtlb.miss_rate               0.0000 # miss rate (i.e., misses/ref)
dtlb.repl_rate               0.0000 # replacement rate (i.e., repls/ref)
dtlb.wb_rate                 0.0000 # writeback rate (i.e., wrbks/ref)
dtlb.inv_rate                0.0000 # invalidation rate (i.e., invs/ref)
vc.accesses                  751026 # total number of accesses
vc.hits                      152189 # total number of hits
vc.vc_misses                      0 # total number of victim cache misses
vc.vc_hits                        0 # total number of victim cache hits
vc.misses                    598837 # total number of misses
vc.replacements               10257 # total number of replacements
vc.writebacks                     0 # total number of writebacks
vc.invalidations             588517 # total number of invalidations
vc.miss_rate                 0.7974 # miss rate (i.e., misses/ref)
vc.repl_rate                 0.0137 # replacement rate (i.e., repls/ref)
vc.wb_rate                   0.0000 # writeback rate (i.e., wrbks/ref)
vc.inv_rate                  0.7836 # invalidation rate (i.e., invs/ref)
sb.accesses                22204911 # total number of accesses
sb.hits                    11633652 # total number of hits
sb.vc_misses                      0 # total number of victim cache misses
sb.vc_hits                        0 # total number of victim cache hits
sb.misses                  10571259 # total number of misses
sb.replacements             3310219 # total number of replacements
sb.writebacks                     0 # total number of writebacks
sb.invalidations            5808828 # total number of invalidations
sb.miss_rate                 0.4761 # miss rate (i.e., misses/ref)
sb.repl_rate                 0.1491 # replacement rate (i.e., repls/ref)
sb.wb_rate                   0.0000 # writeback rate (i.e., wrbks/ref)
sb.inv_rate                  0.2616 # invalidation rate (i.e., invs/ref)
sim_invalid_addrs                 0 # total non-speculative bogus addresses seen (debug var)
ld_text_base           0x0120000000 # program text (code) segment base
ld_text_size                 253952 # program text (code) size in bytes
ld_data_base           0x0140000000 # program initialized data segment base
ld_data_size                  76704 # program init'ed `.data' and uninit'ed `.bss' size in bytes
ld_stack_base          0x011ff9b000 # program stack segment base (highest address in stack)
ld_stack_size                 16384 # program initial stack size
ld_prog_entry          0x0120031ef8 # program entry point (initial PC)
ld_environ_base        0x011ff962c0 # program environment base address address
ld_target_big_endian              0 # target executable endian-ness, non-zero if big endian
mem.page_count                  953 # total number of pages allocated
mem.page_mem                  7624k # total size of memory pages allocated
mem.ptab_misses             1850696 # total first level page table misses
mem.ptab_accesses         383036652 # total page table accesses
mem.ptab_miss_rate           0.0048 # first level page table miss rate

